subsurface_soil	wetland_vegetation
properties_of_the_connection_between_the_two	relative_river_and_wetland_water_level_elevations
equivalent_transmissivity_expression	Darcy_flow_equation
Darcy_flow_equation	MODFLOW
equivalent_transmissivity_expression	MODFLOW
